/*--------------------------------*- C++ -*----------------------------------*\
| =========                 |                                                 |
| \\      /  F ield         | OpenFOAM: The Open Source CFD Toolbox           |
|  \\    /   O peration     | Version:  2412                                  |
|   \\  /    A nd           | Website:  www.openfoam.com                      |
|    \\/     M anipulation  |                                                 |
\*---------------------------------------------------------------------------*/
FoamFile
{
    version     2.0;
    format      ascii;
    arch        "LSB;label=32;scalar=64";
    class       polyBoundaryMesh;
    location    "constant/polyMesh";
    object      boundary;
}
// * * * * * * * * * * * * * * * * * * * * * * * * * * * * * * * * * * * * * //

13
(
    down
    {
        type            symmetryPlane;
        inGroups        1(symmetryPlane);
        nFaces          0;
        startFace       10387;
    }
    right
    {
        type            patch;
        nFaces          0;
        startFace       10387;
    }
    up
    {
        type            symmetryPlane;
        inGroups        1(symmetryPlane);
        nFaces          0;
        startFace       10387;
    }
    left
    {
        type            patch;
        nFaces          0;
        startFace       10387;
    }
    cylinder
    {
        type            wall;
        inGroups        1(wall);
        nFaces          56;
        startFace       10387;
    }
    frontAndBack
    {
        type            empty;
        inGroups        1(empty);
        nFaces          10570;
        startFace       10443;
    }
    procBoundary5to0
    {
        type            processor;
        inGroups        1(processor);
        nFaces          2;
        startFace       21013;
        matchTolerance  0.0001;
        transform       unknown;
        myProcNo        5;
        neighbProcNo    0;
    }
    procBoundary5to1
    {
        type            processor;
        inGroups        1(processor);
        nFaces          77;
        startFace       21015;
        matchTolerance  0.0001;
        transform       unknown;
        myProcNo        5;
        neighbProcNo    1;
    }
    procBoundary5to4
    {
        type            processor;
        inGroups        1(processor);
        nFaces          74;
        startFace       21092;
        matchTolerance  0.0001;
        transform       unknown;
        myProcNo        5;
        neighbProcNo    4;
    }
    procBoundary5to6
    {
        type            processor;
        inGroups        1(processor);
        nFaces          80;
        startFace       21166;
        matchTolerance  0.0001;
        transform       unknown;
        myProcNo        5;
        neighbProcNo    6;
    }
    procBoundary5to8
    {
        type            processor;
        inGroups        1(processor);
        nFaces          1;
        startFace       21246;
        matchTolerance  0.0001;
        transform       unknown;
        myProcNo        5;
        neighbProcNo    8;
    }
    procBoundary5to9
    {
        type            processor;
        inGroups        1(processor);
        nFaces          74;
        startFace       21247;
        matchTolerance  0.0001;
        transform       unknown;
        myProcNo        5;
        neighbProcNo    9;
    }
    procBoundary5to10
    {
        type            processor;
        inGroups        1(processor);
        nFaces          2;
        startFace       21321;
        matchTolerance  0.0001;
        transform       unknown;
        myProcNo        5;
        neighbProcNo    10;
    }
)

// ************************************************************************* //
