/*--------------------------------*- C++ -*----------------------------------*\
| =========                 |                                                 |
| \\      /  F ield         | OpenFOAM: The Open Source CFD Toolbox           |
|  \\    /   O peration     | Version:  2412                                  |
|   \\  /    A nd           | Website:  www.openfoam.com                      |
|    \\/     M anipulation  |                                                 |
\*---------------------------------------------------------------------------*/
FoamFile
{
    version     2.0;
    format      ascii;
    arch        "LSB;label=32;scalar=64";
    class       polyBoundaryMesh;
    location    "constant/polyMesh";
    object      boundary;
}
// * * * * * * * * * * * * * * * * * * * * * * * * * * * * * * * * * * * * * //

9
(
    down
    {
        type            symmetryPlane;
        inGroups        1(symmetryPlane);
        nFaces          0;
        startFace       10423;
    }
    right
    {
        type            patch;
        nFaces          0;
        startFace       10423;
    }
    up
    {
        type            symmetryPlane;
        inGroups        1(symmetryPlane);
        nFaces          70;
        startFace       10423;
    }
    left
    {
        type            patch;
        nFaces          76;
        startFace       10493;
    }
    cylinder
    {
        type            wall;
        inGroups        1(wall);
        nFaces          0;
        startFace       10569;
    }
    frontAndBack
    {
        type            empty;
        inGroups        1(empty);
        nFaces          10570;
        startFace       10569;
    }
    procBoundary8to4
    {
        type            processor;
        inGroups        1(processor);
        nFaces          72;
        startFace       21139;
        matchTolerance  0.0001;
        transform       unknown;
        myProcNo        8;
        neighbProcNo    4;
    }
    procBoundary8to5
    {
        type            processor;
        inGroups        1(processor);
        nFaces          1;
        startFace       21211;
        matchTolerance  0.0001;
        transform       unknown;
        myProcNo        8;
        neighbProcNo    5;
    }
    procBoundary8to9
    {
        type            processor;
        inGroups        1(processor);
        nFaces          75;
        startFace       21212;
        matchTolerance  0.0001;
        transform       unknown;
        myProcNo        8;
        neighbProcNo    9;
    }
)

// ************************************************************************* //
