/*--------------------------------*- C++ -*----------------------------------*\
| =========                 |                                                 |
| \\      /  F ield         | OpenFOAM: The Open Source CFD Toolbox           |
|  \\    /   O peration     | Version:  2412                                  |
|   \\  /    A nd           | Website:  www.openfoam.com                      |
|    \\/     M anipulation  |                                                 |
\*---------------------------------------------------------------------------*/
FoamFile
{
    version     2.0;
    format      ascii;
    arch        "LSB;label=32;scalar=64";
    class       polyBoundaryMesh;
    location    "constant/polyMesh";
    object      boundary;
}
// * * * * * * * * * * * * * * * * * * * * * * * * * * * * * * * * * * * * * //

10
(
    down
    {
        type            symmetryPlane;
        inGroups        1(symmetryPlane);
        nFaces          0;
        startFace       10424;
    }
    right
    {
        type            patch;
        nFaces          0;
        startFace       10424;
    }
    up
    {
        type            symmetryPlane;
        inGroups        1(symmetryPlane);
        nFaces          71;
        startFace       10424;
    }
    left
    {
        type            patch;
        nFaces          0;
        startFace       10495;
    }
    cylinder
    {
        type            wall;
        inGroups        1(wall);
        nFaces          0;
        startFace       10495;
    }
    frontAndBack
    {
        type            empty;
        inGroups        1(empty);
        nFaces          10570;
        startFace       10495;
    }
    procBoundary10to5
    {
        type            processor;
        inGroups        1(processor);
        nFaces          2;
        startFace       21065;
        matchTolerance  0.0001;
        transform       unknown;
        myProcNo        10;
        neighbProcNo    5;
    }
    procBoundary10to6
    {
        type            processor;
        inGroups        1(processor);
        nFaces          72;
        startFace       21067;
        matchTolerance  0.0001;
        transform       unknown;
        myProcNo        10;
        neighbProcNo    6;
    }
    procBoundary10to9
    {
        type            processor;
        inGroups        1(processor);
        nFaces          73;
        startFace       21139;
        matchTolerance  0.0001;
        transform       unknown;
        myProcNo        10;
        neighbProcNo    9;
    }
    procBoundary10to11
    {
        type            processor;
        inGroups        1(processor);
        nFaces          74;
        startFace       21212;
        matchTolerance  0.0001;
        transform       unknown;
        myProcNo        10;
        neighbProcNo    11;
    }
)

// ************************************************************************* //
