/*--------------------------------*- C++ -*----------------------------------*\
| =========                 |                                                 |
| \\      /  F ield         | OpenFOAM: The Open Source CFD Toolbox           |
|  \\    /   O peration     | Version:  2412                                  |
|   \\  /    A nd           | Website:  www.openfoam.com                      |
|    \\/     M anipulation  |                                                 |
\*---------------------------------------------------------------------------*/
FoamFile
{
    version     2.0;
    format      ascii;
    arch        "LSB;label=32;scalar=64";
    class       polyBoundaryMesh;
    location    "constant/polyMesh";
    object      boundary;
}
// * * * * * * * * * * * * * * * * * * * * * * * * * * * * * * * * * * * * * //

11
(
    down
    {
        type            symmetryPlane;
        inGroups        1(symmetryPlane);
        nFaces          0;
        startFace       10421;
    }
    right
    {
        type            patch;
        nFaces          0;
        startFace       10421;
    }
    up
    {
        type            symmetryPlane;
        inGroups        1(symmetryPlane);
        nFaces          0;
        startFace       10421;
    }
    left
    {
        type            patch;
        nFaces          0;
        startFace       10421;
    }
    cylinder
    {
        type            wall;
        inGroups        1(wall);
        nFaces          0;
        startFace       10421;
    }
    frontAndBack
    {
        type            empty;
        inGroups        1(empty);
        nFaces          10570;
        startFace       10421;
    }
    procBoundary6to2
    {
        type            processor;
        inGroups        1(processor);
        nFaces          71;
        startFace       20991;
        matchTolerance  0.0001;
        transform       unknown;
        myProcNo        6;
        neighbProcNo    2;
    }
    procBoundary6to5
    {
        type            processor;
        inGroups        1(processor);
        nFaces          80;
        startFace       21062;
        matchTolerance  0.0001;
        transform       unknown;
        myProcNo        6;
        neighbProcNo    5;
    }
    procBoundary6to7
    {
        type            processor;
        inGroups        1(processor);
        nFaces          74;
        startFace       21142;
        matchTolerance  0.0001;
        transform       unknown;
        myProcNo        6;
        neighbProcNo    7;
    }
    procBoundary6to10
    {
        type            processor;
        inGroups        1(processor);
        nFaces          72;
        startFace       21216;
        matchTolerance  0.0001;
        transform       unknown;
        myProcNo        6;
        neighbProcNo    10;
    }
    procBoundary6to11
    {
        type            processor;
        inGroups        1(processor);
        nFaces          1;
        startFace       21288;
        matchTolerance  0.0001;
        transform       unknown;
        myProcNo        6;
        neighbProcNo    11;
    }
)

// ************************************************************************* //
